version 2
run General-0-20220623-23:16:48-12592
attr configname General
attr datetime 20220623-23:16:48
attr experiment General
attr inifile omnetpp.ini
attr iterationvars ""
attr iterationvarsf ""
attr measurement ""
attr network Final_Lab
attr processid 12592
attr repetition 0
attr replication #0
attr resultdir results
attr runnumber 0
attr seedset 123456
param **.num_of_n_hosts 50
param **.num_of_ddos_hosts 15
param **.num_of_fc_hosts 40

vector 0 Final_Lab.center_point Entropy:vector ETV
attr interpolationmode none
vector 1 Final_Lab.center_point Score50204992:vector ETV
attr interpolationmode none
vector 2 Final_Lab.center_point Score50204992:vector ETV
attr interpolationmode none
vector 3 Final_Lab.center_point Score50204992:vector ETV
attr interpolationmode none
0	109	0.00108322246	0
0	109	0.00108322246	1
0	109	0.00108322246	100
0	115	0.001126969829	0.75998330116272
0	115	0.001126969829	0.63888889551163
0	115	0.001126969829	33.777778625488
0	127	0.001175545972	1.4809564352036
0	127	0.001175545972	0.45399031043053
0	127	0.001175545972	3.1486809253693
0	205	0.001966717836	1.9457311630249
0	205	0.001966717836	0.28307375311852
0	205	0.001966717836	1.1020376682281
0	972	5.000011587261	2.2776801586151
0	972	5.000011587261	0.20416879653931
0	972	5.000011587261	1.0227595567703
0	976	5.000061269962	2.3411595821381
0	2564	10.000016544512	3.2022080421448
0	2566	10.000099736758	3.3615565299988
0	2568	10.000117967136	3.3700623512268
0	2570	10.000120185292	3.3785619735718
0	2572	10.000158837763	3.3870556354523
0	2574	10.000170917175	3.3955430984497
0	2576	10.000199864265	3.4040246009827
0	2578	10.000224789732	3.4125001430511
0	2580	10.000226226358	3.4209697246552
0	2582	10.000274592433	3.4294331073761
0	2584	10.000280139043	3.4378905296326
0	2586	10.00030524616	3.4463419914246
0	2588	10.000312543345	3.4547874927521
0	2590	10.000342345208	3.4632270336151
0	2592	10.000343525873	3.4716606140137
0	2594	10.000359204995	3.4800882339478
0	2596	10.000394659009	3.4885098934174
0	2598	10.000401131225	3.4969255924225
0	2600	10.000405178751	3.5053353309631
0	2602	10.000414033666	3.5137391090393
0	2604	10.000462354336	3.522136926651
0	2606	10.000488954462	3.5305290222168
0	2608	10.000508776383	3.5389151573181
0	2610	10.000511701764	3.547295331955
0	2612	10.000567940777	3.5556697845459
0	2614	10.000595925318	3.5640382766724
0	2616	10.000599082288	3.5724008083344
0	2618	10.000610588272	3.5807576179504
0	2620	10.000625042483	3.5891084671021
0	2622	10.000641666169	3.5974535942078
0	2624	10.000659455203	3.605792760849
0	2626	10.000661663151	3.6141262054443
0	2628	10.000674303078	3.6224539279938
0	2630	10.000702184359	3.6307756900787
0	2632	10.000734596219	3.6390917301178
0	2634	10.000753568848	3.647402048111
0	2636	10.000780526769	3.6557064056396
0	2638	10.00087137165	3.6640050411224
0	2640	10.000904899807	3.6722979545593
0	2642	10.000932772198	3.6805851459503
1	976	5.000061269962	0
1	976	5.000061269962	0
1	2564	10.000016544512	0
1	2564	10.000016544512	0
1	2566	10.000099736758	0
1	2566	10.000099736758	0
1	2568	10.000117967136	0
1	2568	10.000117967136	0
1	2570	10.000120185292	0
1	2570	10.000120185292	0
1	2572	10.000158837763	0
1	2572	10.000158837763	0
1	2574	10.000170917175	0
1	2574	10.000170917175	0
1	2576	10.000199864265	0
1	2576	10.000199864265	0
1	2578	10.000224789732	0
1	2578	10.000224789732	0
1	2580	10.000226226358	0
1	2580	10.000226226358	0
1	2582	10.000274592433	0
1	2582	10.000274592433	0
1	2584	10.000280139043	0
1	2584	10.000280139043	0
1	2586	10.00030524616	0
1	2586	10.00030524616	0
1	2588	10.000312543345	0
1	2588	10.000312543345	0
1	2590	10.000342345208	0
1	2590	10.000342345208	0
1	2592	10.000343525873	0
1	2592	10.000343525873	0
1	2594	10.000359204995	0
1	2594	10.000359204995	0
1	2596	10.000394659009	0
1	2596	10.000394659009	0
1	2598	10.000401131225	0
1	2598	10.000401131225	0
1	2600	10.000405178751	0
1	2600	10.000405178751	0
1	2602	10.000414033666	0
1	2602	10.000414033666	0
1	2604	10.000462354336	0
1	2604	10.000462354336	0
1	2606	10.000488954462	0
1	2606	10.000488954462	0
1	2608	10.000508776383	0
1	2608	10.000508776383	0
1	2610	10.000511701764	0
1	2610	10.000511701764	0
1	2612	10.000567940777	0
1	2612	10.000567940777	0
1	2614	10.000595925318	0
1	2614	10.000595925318	0
1	2616	10.000599082288	0
1	2616	10.000599082288	0
1	2618	10.000610588272	0
1	2618	10.000610588272	0
1	2620	10.000625042483	0
1	2620	10.000625042483	0
1	2622	10.000641666169	0
1	2622	10.000641666169	0
1	2624	10.000659455203	0
1	2624	10.000659455203	0
1	2626	10.000661663151	0
1	2626	10.000661663151	0
1	2628	10.000674303078	0
1	2628	10.000674303078	0
1	2630	10.000702184359	0
1	2630	10.000702184359	0
1	2632	10.000734596219	0
1	2632	10.000734596219	0
1	2634	10.000753568848	0
1	2634	10.000753568848	0
1	2636	10.000780526769	0
1	2636	10.000780526769	0
1	2638	10.00087137165	0
1	2638	10.00087137165	0
1	2640	10.000904899807	0
1	2640	10.000904899807	0
1	2642	10.000932772198	0
1	2642	10.000932772198	0
2	976	5.000061269962	0
2	976	5.000061269962	0
2	2564	10.000016544512	0
2	2564	10.000016544512	0
2	2566	10.000099736758	0
2	2566	10.000099736758	0
2	2568	10.000117967136	0
2	2568	10.000117967136	0
2	2570	10.000120185292	0
2	2570	10.000120185292	0
2	2572	10.000158837763	0
2	2572	10.000158837763	0
2	2574	10.000170917175	0
2	2574	10.000170917175	0
2	2576	10.000199864265	0
2	2576	10.000199864265	0
2	2578	10.000224789732	0
2	2578	10.000224789732	0
2	2580	10.000226226358	0
2	2580	10.000226226358	0
2	2582	10.000274592433	0
2	2582	10.000274592433	0
2	2584	10.000280139043	0
2	2584	10.000280139043	0
2	2586	10.00030524616	0
2	2586	10.00030524616	0
2	2588	10.000312543345	0
2	2588	10.000312543345	0
2	2590	10.000342345208	0
2	2590	10.000342345208	0
2	2592	10.000343525873	0
2	2592	10.000343525873	0
2	2594	10.000359204995	0
2	2594	10.000359204995	0
2	2596	10.000394659009	0
2	2596	10.000394659009	0
2	2598	10.000401131225	0
2	2598	10.000401131225	0
2	2600	10.000405178751	0
2	2600	10.000405178751	0
2	2602	10.000414033666	0
2	2602	10.000414033666	0
2	2604	10.000462354336	0
2	2604	10.000462354336	0
2	2606	10.000488954462	0
2	2606	10.000488954462	0
2	2608	10.000508776383	0
2	2608	10.000508776383	0
2	2610	10.000511701764	0
2	2610	10.000511701764	0
2	2612	10.000567940777	0
2	2612	10.000567940777	0
2	2614	10.000595925318	0
2	2614	10.000595925318	0
2	2616	10.000599082288	0
2	2616	10.000599082288	0
2	2618	10.000610588272	0
2	2618	10.000610588272	0
2	2620	10.000625042483	0
2	2620	10.000625042483	0
2	2622	10.000641666169	0
2	2622	10.000641666169	0
2	2624	10.000659455203	0
2	2624	10.000659455203	0
2	2626	10.000661663151	0
2	2626	10.000661663151	0
2	2628	10.000674303078	0
2	2628	10.000674303078	0
2	2630	10.000702184359	0
2	2630	10.000702184359	0
2	2632	10.000734596219	0
2	2632	10.000734596219	0
2	2634	10.000753568848	0
2	2634	10.000753568848	0
2	2636	10.000780526769	0
2	2636	10.000780526769	0
2	2638	10.00087137165	0
2	2638	10.00087137165	0
2	2640	10.000904899807	0
2	2640	10.000904899807	0
2	2642	10.000932772198	0
2	2642	10.000932772198	0
3	976	5.000061269962	0
3	976	5.000061269962	0
3	2564	10.000016544512	0
3	2564	10.000016544512	0
3	2566	10.000099736758	0
3	2566	10.000099736758	0
3	2568	10.000117967136	0
3	2568	10.000117967136	0
3	2570	10.000120185292	0
3	2570	10.000120185292	0
3	2572	10.000158837763	0
3	2572	10.000158837763	0
3	2574	10.000170917175	0
3	2574	10.000170917175	0
3	2576	10.000199864265	0
3	2576	10.000199864265	0
3	2578	10.000224789732	0
3	2578	10.000224789732	0
3	2580	10.000226226358	0
3	2580	10.000226226358	0
3	2582	10.000274592433	0
3	2582	10.000274592433	0
3	2584	10.000280139043	0
3	2584	10.000280139043	0
3	2586	10.00030524616	0
3	2586	10.00030524616	0
3	2588	10.000312543345	0
3	2588	10.000312543345	0
3	2590	10.000342345208	0
3	2590	10.000342345208	0
3	2592	10.000343525873	0
3	2592	10.000343525873	0
3	2594	10.000359204995	0
3	2594	10.000359204995	0
3	2596	10.000394659009	0
3	2596	10.000394659009	0
3	2598	10.000401131225	0
3	2598	10.000401131225	0
3	2600	10.000405178751	0
3	2600	10.000405178751	0
3	2602	10.000414033666	0
3	2602	10.000414033666	0
3	2604	10.000462354336	0
3	2604	10.000462354336	0
3	2606	10.000488954462	0
3	2606	10.000488954462	0
3	2608	10.000508776383	0
3	2608	10.000508776383	0
3	2610	10.000511701764	0
3	2610	10.000511701764	0
3	2612	10.000567940777	0
3	2612	10.000567940777	0
3	2614	10.000595925318	0
3	2614	10.000595925318	0
3	2616	10.000599082288	0
3	2616	10.000599082288	0
3	2618	10.000610588272	0
3	2618	10.000610588272	0
3	2620	10.000625042483	0
3	2620	10.000625042483	0
3	2622	10.000641666169	0
3	2622	10.000641666169	0
3	2624	10.000659455203	0
3	2624	10.000659455203	0
3	2626	10.000661663151	0
3	2626	10.000661663151	0
3	2628	10.000674303078	0
3	2628	10.000674303078	0
3	2630	10.000702184359	0
3	2630	10.000702184359	0
3	2632	10.000734596219	0
3	2632	10.000734596219	0
3	2634	10.000753568848	0
3	2634	10.000753568848	0
3	2636	10.000780526769	0
3	2636	10.000780526769	0
3	2638	10.00087137165	0
3	2638	10.00087137165	0
3	2640	10.000904899807	0
3	2640	10.000904899807	0
3	2642	10.000932772198	0
3	2642	10.000932772198	0

